<?xml version="1.0" encoding="UTF-8"?>

<!-- generated on 2025-05-09 10:29:48 by Eclipse SUMO sumo Version 1.22.0
-->

<sumoConfiguration xmlns:xsi="http://www.w3.org/2001/XMLSchema-instance" xsi:noNamespaceSchemaLocation="http://sumo.dlr.de/xsd/sumoConfiguration.xsd">
    <time>
    <step-length value="1.0"/>
    </time>
    <input>
        <net-file value="urban_three_zones.net.xml"/>
        <additional-files value="vehicle_types.add.xml"/>
    </input>

</sumoConfiguration>
