<?xml version="1.0" encoding="UTF-8"?>

<!-- generated on 2025-09-10 09:40:17 by Eclipse SUMO netedit Version 1.22.0
<neteditConfiguration xmlns:xsi="http://www.w3.org/2001/XMLSchema-instance" xsi:noNamespaceSchemaLocation="http://sumo.dlr.de/xsd/neteditConfiguration.xsd">

    <input>
        <sumo-net-file value="/home/guy/Projects/Traffic/Traffic-DSTG-Gen/simulation/urban_three_zones.net.xml"/>
    </input>

    <output>
        <output-file value="/home/guy/Projects/Traffic/Traffic-DSTG-Gen/simulation/urban_three_zones.net.xml"/>
    </output>

    <processing>
        <geometry.min-radius.fix.railways value="false"/>
        <geometry.max-grade.fix value="false"/>
        <offset.disable-normalization value="true"/>
        <lefthand value="0"/>
    </processing>

    <junctions>
        <no-turnarounds value="true"/>
        <junctions.corner-detail value="5"/>
        <junctions.limit-turn-speed value="5.50"/>
        <rectangular-lane-cut value="0"/>
    </junctions>

    <pedestrian>
        <walkingareas value="0"/>
    </pedestrian>

</neteditConfiguration>
-->

<net version="1.20" junctionCornerDetail="5" limitTurnSpeed="5.50" xmlns:xsi="http://www.w3.org/2001/XMLSchema-instance" xsi:noNamespaceSchemaLocation="http://sumo.dlr.de/xsd/net_file.xsd">

    <location netOffset="0.00,0.00" convBoundary="0.00,-6264.96,18000.00,5000.00" origBoundary="0.00,0.00,18000.00,5000.00" projParameter="!"/>

    <edge id=":AA0_0" function="internal">
        <lane id=":AA0_0_0" index="0" speed="8.96" length="18.06" shape="-4.80,6.40 -4.10,1.50 -2.00,-2.00 1.50,-4.10 6.40,-4.80"/>
        <lane id=":AA0_0_1" index="1" speed="7.66" length="12.90" shape="-1.60,6.40 -1.10,2.90 0.40,0.40 2.90,-1.10 6.40,-1.60"/>
    </edge>
    <edge id=":AA0_2" function="internal">
        <lane id=":AA0_2_0" index="0" speed="3.90" length="2.58" shape="6.40,4.80 5.70,4.90 5.20,5.20 4.90,5.70 4.80,6.40"/>
        <lane id=":AA0_2_1" index="1" speed="6.08" length="7.74" shape="6.40,1.60 4.30,1.90 2.80,2.80 1.90,4.30 1.60,6.40"/>
    </edge>
    <edge id=":AA1_0" function="internal">
        <lane id=":AA1_0_0" index="0" speed="22.22" length="14.40" shape="-4.80,507.20 -4.80,492.80"/>
        <lane id=":AA1_0_1" index="1" speed="22.22" length="14.40" shape="-1.60,507.20 -1.60,492.80"/>
    </edge>
    <edge id=":AA1_2" function="internal">
        <lane id=":AA1_2_0" index="0" speed="8.67" length="3.71" shape="-1.60,507.20 -0.89,503.56"/>
    </edge>
    <edge id=":AA1_8" function="internal">
        <lane id=":AA1_8_0" index="0" speed="8.67" length="13.14" shape="-0.89,503.56 -0.85,503.35 1.40,500.60 5.15,498.95 10.40,498.40"/>
    </edge>
    <edge id=":AA1_3" function="internal">
        <lane id=":AA1_3_0" index="0" speed="6.51" length="9.03" shape="10.40,501.60 7.95,501.95 6.20,503.00 5.15,504.75 4.80,507.20"/>
    </edge>
    <edge id=":AA1_4" function="internal">
        <lane id=":AA1_4_0" index="0" speed="8.67" length="16.85" shape="10.40,501.60 5.15,501.05 1.40,499.40 -0.85,496.65 -1.60,492.80"/>
    </edge>
    <edge id=":AA1_5" function="internal">
        <lane id=":AA1_5_0" index="0" speed="6.51" length="9.03" shape="4.80,492.80 5.15,495.25 6.20,497.00 7.95,498.05 10.40,498.40"/>
    </edge>
    <edge id=":AA1_6" function="internal">
        <lane id=":AA1_6_0" index="0" speed="22.22" length="14.40" shape="4.80,492.80 4.80,507.20"/>
        <lane id=":AA1_6_1" index="1" speed="22.22" length="14.40" shape="1.60,492.80 1.60,507.20"/>
    </edge>
    <edge id=":AA10_0" function="internal">
        <lane id=":AA10_0_0" index="0" speed="8.96" length="18.06" shape="6.40,5004.80 1.50,5004.10 -2.00,5002.00 -4.10,4998.50 -4.80,4993.60"/>
        <lane id=":AA10_0_1" index="1" speed="7.66" length="12.90" shape="6.40,5001.60 2.90,5001.10 0.40,4999.60 -1.10,4997.10 -1.60,4993.60"/>
    </edge>
    <edge id=":AA10_2" function="internal">
        <lane id=":AA10_2_0" index="0" speed="3.90" length="2.58" shape="4.80,4993.60 4.90,4994.30 5.20,4994.80 5.70,4995.10 6.40,4995.20"/>
        <lane id=":AA10_2_1" index="1" speed="6.08" length="7.74" shape="1.60,4993.60 1.90,4995.70 2.80,4997.20 4.30,4998.10 6.40,4998.40"/>
    </edge>
    <edge id=":AA2_0" function="internal">
        <lane id=":AA2_0_0" index="0" speed="22.22" length="14.40" shape="-4.80,1007.20 -4.80,992.80"/>
        <lane id=":AA2_0_1" index="1" speed="22.22" length="14.40" shape="-1.60,1007.20 -1.60,992.80"/>
    </edge>
    <edge id=":AA2_2" function="internal">
        <lane id=":AA2_2_0" index="0" speed="8.67" length="3.71" shape="-1.60,1007.20 -0.89,1003.56"/>
    </edge>
    <edge id=":AA2_8" function="internal">
        <lane id=":AA2_8_0" index="0" speed="8.67" length="13.14" shape="-0.89,1003.56 -0.85,1003.35 1.40,1000.60 5.15,998.95 10.40,998.40"/>
    </edge>
    <edge id=":AA2_3" function="internal">
        <lane id=":AA2_3_0" index="0" speed="6.51" length="9.03" shape="10.40,1001.60 7.95,1001.95 6.20,1003.00 5.15,1004.75 4.80,1007.20"/>
    </edge>
    <edge id=":AA2_4" function="internal">
        <lane id=":AA2_4_0" index="0" speed="8.67" length="16.85" shape="10.40,1001.60 5.15,1001.05 1.40,999.40 -0.85,996.65 -1.60,992.80"/>
    </edge>
    <edge id=":AA2_5" function="internal">
        <lane id=":AA2_5_0" index="0" speed="6.51" length="9.03" shape="4.80,992.80 5.15,995.25 6.20,997.00 7.95,998.05 10.40,998.40"/>
    </edge>
    <edge id=":AA2_6" function="internal">
        <lane id=":AA2_6_0" index="0" speed="22.22" length="14.40" shape="4.80,992.80 4.80,1007.20"/>
        <lane id=":AA2_6_1" index="1" speed="22.22" length="14.40" shape="1.60,992.80 1.60,1007.20"/>
    </edge>
    <edge id=":AA3_0" function="internal">
        <lane id=":AA3_0_0" index="0" speed="22.22" length="14.40" shape="-4.80,1507.20 -4.80,1492.80"/>
        <lane id=":AA3_0_1" index="1" speed="22.22" length="14.40" shape="-1.60,1507.20 -1.60,1492.80"/>
    </edge>
    <edge id=":AA3_2" function="internal">
        <lane id=":AA3_2_0" index="0" speed="8.67" length="3.71" shape="-1.60,1507.20 -0.89,1503.56"/>
    </edge>
    <edge id=":AA3_8" function="internal">
        <lane id=":AA3_8_0" index="0" speed="8.67" length="13.14" shape="-0.89,1503.56 -0.85,1503.35 1.40,1500.60 5.15,1498.95 10.40,1498.40"/>
    </edge>
    <edge id=":AA3_3" function="internal">
        <lane id=":AA3_3_0" index="0" speed="6.51" length="9.03" shape="10.40,1501.60 7.95,1501.95 6.20,1503.00 5.15,1504.75 4.80,1507.20"/>
    </edge>
    <edge id=":AA3_4" function="internal">
        <lane id=":AA3_4_0" index="0" speed="8.67" length="16.85" shape="10.40,1501.60 5.15,1501.05 1.40,1499.40 -0.85,1496.65 -1.60,1492.80"/>
    </edge>
    <edge id=":AA3_5" function="internal">
        <lane id=":AA3_5_0" index="0" speed="6.51" length="9.03" shape="4.80,1492.80 5.15,1495.25 6.20,1497.00 7.95,1498.05 10.40,1498.40"/>
    </edge>
    <edge id=":AA3_6" function="internal">
        <lane id=":AA3_6_0" index="0" speed="22.22" length="14.40" shape="4.80,1492.80 4.80,1507.20"/>
        <lane id=":AA3_6_1" index="1" speed="22.22" length="14.40" shape="1.60,1492.80 1.60,1507.20"/>
    </edge>
    <edge id=":AA4_0" function="internal">
        <lane id=":AA4_0_0" index="0" speed="22.22" length="14.40" shape="-4.80,2007.20 -4.80,1992.80"/>
        <lane id=":AA4_0_1" index="1" speed="22.22" length="14.40" shape="-1.60,2007.20 -1.60,1992.80"/>
    </edge>
    <edge id=":AA4_2" function="internal">
        <lane id=":AA4_2_0" index="0" speed="8.67" length="3.71" shape="-1.60,2007.20 -0.89,2003.56"/>
    </edge>
    <edge id=":AA4_8" function="internal">
        <lane id=":AA4_8_0" index="0" speed="8.67" length="13.14" shape="-0.89,2003.56 -0.85,2003.35 1.40,2000.60 5.15,1998.95 10.40,1998.40"/>
    </edge>
    <edge id=":AA4_3" function="internal">
        <lane id=":AA4_3_0" index="0" speed="6.51" length="9.03" shape="10.40,2001.60 7.95,2001.95 6.20,2003.00 5.15,2004.75 4.80,2007.20"/>
    </edge>
    <edge id=":AA4_4" function="internal">
        <lane id=":AA4_4_0" index="0" speed="8.67" length="16.85" shape="10.40,2001.60 5.15,2001.05 1.40,1999.40 -0.85,1996.65 -1.60,1992.80"/>
    </edge>
    <edge id=":AA4_5" function="internal">
        <lane id=":AA4_5_0" index="0" speed="6.51" length="9.03" shape="4.80,1992.80 5.15,1995.25 6.20,1997.00 7.95,1998.05 10.40,1998.40"/>
    </edge>
    <edge id=":AA4_6" function="internal">
        <lane id=":AA4_6_0" index="0" speed="22.22" length="14.40" shape="4.80,1992.80 4.80,2007.20"/>
        <lane id=":AA4_6_1" index="1" speed="22.22" length="14.40" shape="1.60,1992.80 1.60,2007.20"/>
    </edge>
    <edge id=":AA5_0" function="internal">
        <lane id=":AA5_0_0" index="0" speed="22.22" length="20.80" shape="-4.80,2510.40 -4.80,2489.60"/>
        <lane id=":AA5_0_1" index="1" speed="22.22" length="20.80" shape="-1.60,2510.40 -1.60,2489.60"/>
    </edge>
    <edge id=":AA5_2" function="internal">
        <lane id=":AA5_2_0" index="0" speed="9.26" length="5.01" shape="-1.60,2510.40 -0.89,2505.44"/>
    </edge>
    <edge id=":AA5_9" function="internal">
        <lane id=":AA5_9_0" index="0" speed="9.26" length="14.34" shape="-0.89,2505.44 -0.85,2505.15 1.40,2501.40 5.15,2499.15 10.40,2498.40"/>
    </edge>
    <edge id=":AA5_3" function="internal">
        <lane id=":AA5_3_0" index="0" speed="6.51" length="9.03" shape="10.40,2504.80 7.95,2505.15 6.20,2506.20 5.15,2507.95 4.80,2510.40"/>
        <lane id=":AA5_3_1" index="1" speed="8.00" length="14.19" shape="10.40,2501.60 6.55,2502.15 3.80,2503.80 2.15,2506.55 1.60,2510.40"/>
    </edge>
    <edge id=":AA5_5" function="internal">
        <lane id=":AA5_5_0" index="0" speed="9.26" length="19.35" shape="10.40,2501.60 5.15,2500.85 1.40,2498.60 -0.85,2494.85 -1.60,2489.60"/>
    </edge>
    <edge id=":AA5_6" function="internal">
        <lane id=":AA5_6_0" index="0" speed="6.51" length="9.03" shape="4.80,2489.60 5.15,2492.05 6.20,2493.80 7.95,2494.85 10.40,2495.20"/>
    </edge>
    <edge id=":AA5_7" function="internal">
        <lane id=":AA5_7_0" index="0" speed="22.22" length="20.80" shape="4.80,2489.60 4.80,2510.40"/>
        <lane id=":AA5_7_1" index="1" speed="22.22" length="20.80" shape="1.60,2489.60 1.60,2510.40"/>
    </edge>
    <edge id=":AA6_0" function="internal">
        <lane id=":AA6_0_0" index="0" speed="22.22" length="14.40" shape="-4.80,3007.20 -4.80,2992.80"/>
        <lane id=":AA6_0_1" index="1" speed="22.22" length="14.40" shape="-1.60,3007.20 -1.60,2992.80"/>
    </edge>
    <edge id=":AA6_2" function="internal">
        <lane id=":AA6_2_0" index="0" speed="8.67" length="3.71" shape="-1.60,3007.20 -0.89,3003.56"/>
    </edge>
    <edge id=":AA6_8" function="internal">
        <lane id=":AA6_8_0" index="0" speed="8.67" length="13.14" shape="-0.89,3003.56 -0.85,3003.35 1.40,3000.60 5.15,2998.95 10.40,2998.40"/>
    </edge>
    <edge id=":AA6_3" function="internal">
        <lane id=":AA6_3_0" index="0" speed="6.51" length="9.03" shape="10.40,3001.60 7.95,3001.95 6.20,3003.00 5.15,3004.75 4.80,3007.20"/>
    </edge>
    <edge id=":AA6_4" function="internal">
        <lane id=":AA6_4_0" index="0" speed="8.67" length="16.85" shape="10.40,3001.60 5.15,3001.05 1.40,2999.40 -0.85,2996.65 -1.60,2992.80"/>
    </edge>
    <edge id=":AA6_5" function="internal">
        <lane id=":AA6_5_0" index="0" speed="6.51" length="9.03" shape="4.80,2992.80 5.15,2995.25 6.20,2997.00 7.95,2998.05 10.40,2998.40"/>
    </edge>
    <edge id=":AA6_6" function="internal">
        <lane id=":AA6_6_0" index="0" speed="22.22" length="14.40" shape="4.80,2992.80 4.80,3007.20"/>
        <lane id=":AA6_6_1" index="1" speed="22.22" length="14.40" shape="1.60,2992.80 1.60,3007.20"/>
    </edge>
    <edge id=":AA7_0" function="internal">
        <lane id=":AA7_0_0" index="0" speed="22.22" length="14.40" shape="-4.80,3507.20 -4.80,3492.80"/>
        <lane id=":AA7_0_1" index="1" speed="22.22" length="14.40" shape="-1.60,3507.20 -1.60,3492.80"/>
    </edge>
    <edge id=":AA7_2" function="internal">
        <lane id=":AA7_2_0" index="0" speed="8.67" length="3.71" shape="-1.60,3507.20 -0.89,3503.56"/>
    </edge>
    <edge id=":AA7_8" function="internal">
        <lane id=":AA7_8_0" index="0" speed="8.67" length="13.14" shape="-0.89,3503.56 -0.85,3503.35 1.40,3500.60 5.15,3498.95 10.40,3498.40"/>
    </edge>
    <edge id=":AA7_3" function="internal">
        <lane id=":AA7_3_0" index="0" speed="6.51" length="9.03" shape="10.40,3501.60 7.95,3501.95 6.20,3503.00 5.15,3504.75 4.80,3507.20"/>
    </edge>
    <edge id=":AA7_4" function="internal">
        <lane id=":AA7_4_0" index="0" speed="8.67" length="16.85" shape="10.40,3501.60 5.15,3501.05 1.40,3499.40 -0.85,3496.65 -1.60,3492.80"/>
    </edge>
    <edge id=":AA7_5" function="internal">
        <lane id=":AA7_5_0" index="0" speed="6.51" length="9.03" shape="4.80,3492.80 5.15,3495.25 6.20,3497.00 7.95,3498.05 10.40,3498.40"/>
    </edge>
    <edge id=":AA7_6" function="internal">
        <lane id=":AA7_6_0" index="0" speed="22.22" length="14.40" shape="4.80,3492.80 4.80,3507.20"/>
        <lane id=":AA7_6_1" index="1" speed="22.22" length="14.40" shape="1.60,3492.80 1.60,3507.20"/>
    </edge>
    <edge id=":AA8_0" function="internal">
        <lane id=":AA8_0_0" index="0" speed="22.22" length="14.40" shape="-4.80,4007.20 -4.80,3992.80"/>
        <lane id=":AA8_0_1" index="1" speed="22.22" length="14.40" shape="-1.60,4007.20 -1.60,3992.80"/>
    </edge>
    <edge id=":AA8_2" function="internal">
        <lane id=":AA8_2_0" index="0" speed="8.67" length="3.71" shape="-1.60,4007.20 -0.89,4003.56"/>
    </edge>
    <edge id=":AA8_8" function="internal">
        <lane id=":AA8_8_0" index="0" speed="8.67" length="13.14" shape="-0.89,4003.56 -0.85,4003.35 1.40,4000.60 5.15,3998.95 10.40,3998.40"/>
    </edge>
    <edge id=":AA8_3" function="internal">
        <lane id=":AA8_3_0" index="0" speed="6.51" length="9.03" shape="10.40,4001.60 7.95,4001.95 6.20,4003.00 5.15,4004.75 4.80,4007.20"/>
    </edge>
    <edge id=":AA8_4" function="internal">
        <lane id=":AA8_4_0" index="0" speed="8.67" length="16.85" shape="10.40,4001.60 5.15,4001.05 1.40,3999.40 -0.85,3996.65 -1.60,3992.80"/>
    </edge>
    <edge id=":AA8_5" function="internal">
        <lane id=":AA8_5_0" index="0" speed="6.51" length="9.03" shape="4.80,3992.80 5.15,3995.25 6.20,3997.00 7.95,3998.05 10.40,3998.40"/>
    </edge>
    <edge id=":AA8_6" function="internal">
        <lane id=":AA8_6_0" index="0" speed="22.22" length="14.40" shape="4.80,3992.80 4.80,4007.20"/>
        <lane id=":AA8_6_1" index="1" speed="22.22" length="14.40" shape="1.60,3992.80 1.60,4007.20"/>
    </edge>
    <edge id=":AA9_0" function="internal">
        <lane id=":AA9_0_0" index="0" speed="22.22" length="14.40" shape="-4.80,4507.20 -4.80,4492.80"/>
        <lane id=":AA9_0_1" index="1" speed="22.22" length="14.40" shape="-1.60,4507.20 -1.60,4492.80"/>
    </edge>
    <edge id=":AA9_2" function="internal">
        <lane id=":AA9_2_0" index="0" speed="8.67" length="3.71" shape="-1.60,4507.20 -0.89,4503.56"/>
    </edge>
    <edge id=":AA9_8" function="internal">
        <lane id=":AA9_8_0" index="0" speed="8.67" length="13.14" shape="-0.89,4503.56 -0.85,4503.35 1.40,4500.60 5.15,4498.95 10.40,4498.40"/>
    </edge>
    <edge id=":AA9_3" function="internal">
        <lane id=":AA9_3_0" index="0" speed="6.51" length="9.03" shape="10.40,4501.60 7.95,4501.95 6.20,4503.00 5.15,4504.75 4.80,4507.20"/>
    </edge>
    <edge id=":AA9_4" function="internal">
        <lane id=":AA9_4_0" index="0" speed="8.67" length="16.85" shape="10.40,4501.60 5.15,4501.05 1.40,4499.40 -0.85,4496.65 -1.60,4492.80"/>
    </edge>
    <edge id=":AA9_5" function="internal">
        <lane id=":AA9_5_0" index="0" speed="6.51" length="9.03" shape="4.80,4492.80 5.15,4495.25 6.20,4497.00 7.95,4498.05 10.40,4498.40"/>
    </edge>
    <edge id=":AA9_6" function="internal">
        <lane id=":AA9_6_0" index="0" speed="22.22" length="14.40" shape="4.80,4492.80 4.80,4507.20"/>
        <lane id=":AA9_6_1" index="1" speed="22.22" length="14.40" shape="1.60,4492.80 1.60,4507.20"/>
    </edge>
    <edge id=":AB0_0" function="internal">
        <lane id=":AB0_0_0" index="0" speed="6.51" length="9.03" shape="498.40,10.40 498.05,7.95 497.00,6.20 495.25,5.15 492.80,4.80"/>
    </edge>
    <edge id=":AB0_1" function="internal">
        <lane id=":AB0_1_0" index="0" speed="8.67" length="16.85" shape="498.40,10.40 498.95,5.15 500.60,1.40 503.35,-0.85 507.20,-1.60"/>
    </edge>
    <edge id=":AB0_2" function="internal">
        <lane id=":AB0_2_0" index="0" speed="6.51" length="9.03" shape="507.20,4.80 504.75,5.15 503.00,6.20 501.95,7.95 501.60,10.40"/>
    </edge>
    <edge id=":AB0_3" function="internal">
        <lane id=":AB0_3_0" index="0" speed="22.22" length="14.40" shape="507.20,4.80 492.80,4.80"/>
        <lane id=":AB0_3_1" index="1" speed="22.22" length="14.40" shape="507.20,1.60 492.80,1.60"/>
    </edge>
    <edge id=":AB0_5" function="internal">
        <lane id=":AB0_5_0" index="0" speed="22.22" length="14.40" shape="492.80,-4.80 507.20,-4.80"/>
        <lane id=":AB0_5_1" index="1" speed="22.22" length="14.40" shape="492.80,-1.60 507.20,-1.60"/>
    </edge>
    <edge id=":AB0_7" function="internal">
        <lane id=":AB0_7_0" index="0" speed="8.67" length="3.71" shape="492.80,-1.60 496.44,-0.89"/>
    </edge>
    <edge id=":AB0_8" function="internal">
        <lane id=":AB0_8_0" index="0" speed="8.67" length="13.14" shape="496.44,-0.89 496.65,-0.85 499.40,1.40 501.05,5.15 501.60,10.40"/>
    </edge>
    <edge id=":AB1_0" function="internal">
        <lane id=":AB1_0_0" index="0" speed="6.51" length="9.03" shape="498.40,507.20 498.05,504.75 497.00,503.00 495.25,501.95 492.80,501.60"/>
    </edge>
    <edge id=":AB1_1" function="internal">
        <lane id=":AB1_1_0" index="0" speed="13.89" length="14.40" shape="498.40,507.20 498.40,492.80"/>
    </edge>
    <edge id=":AB1_2" function="internal">
        <lane id=":AB1_2_0" index="0" speed="8.00" length="4.07" shape="498.40,507.20 498.95,503.35 499.04,503.20"/>
    </edge>
    <edge id=":AB1_12" function="internal">
        <lane id=":AB1_12_0" index="0" speed="8.00" length="10.13" shape="499.04,503.20 500.60,500.60 503.35,498.95 507.20,498.40"/>
    </edge>
    <edge id=":AB1_3" function="internal">
        <lane id=":AB1_3_0" index="0" speed="6.51" length="9.03" shape="507.20,501.60 504.75,501.95 503.00,503.00 501.95,504.75 501.60,507.20"/>
    </edge>
    <edge id=":AB1_4" function="internal">
        <lane id=":AB1_4_0" index="0" speed="13.89" length="14.40" shape="507.20,501.60 492.80,501.60"/>
    </edge>
    <edge id=":AB1_5" function="internal">
        <lane id=":AB1_5_0" index="0" speed="8.00" length="14.19" shape="507.20,501.60 503.35,501.05 500.60,499.40 498.95,496.65 498.40,492.80"/>
    </edge>
    <edge id=":AB1_6" function="internal">
        <lane id=":AB1_6_0" index="0" speed="6.51" length="9.03" shape="501.60,492.80 501.95,495.25 503.00,497.00 504.75,498.05 507.20,498.40"/>
    </edge>
    <edge id=":AB1_7" function="internal">
        <lane id=":AB1_7_0" index="0" speed="13.89" length="14.40" shape="501.60,492.80 501.60,507.20"/>
    </edge>
    <edge id=":AB1_8" function="internal">
        <lane id=":AB1_8_0" index="0" speed="8.00" length="4.07" shape="501.60,492.80 501.05,496.65 500.96,496.80"/>
    </edge>
    <edge id=":AB1_13" function="internal">
        <lane id=":AB1_13_0" index="0" speed="8.00" length="10.13" shape="500.96,496.80 499.40,499.40 496.65,501.05 492.80,501.60"/>
    </edge>
    <edge id=":AB1_9" function="internal">
        <lane id=":AB1_9_0" index="0" speed="6.51" length="9.03" shape="492.80,498.40 495.25,498.05 497.00,497.00 498.05,495.25 498.40,492.80"/>
    </edge>
    <edge id=":AB1_10" function="internal">
        <lane id=":AB1_10_0" index="0" speed="13.89" length="14.40" shape="492.80,498.40 507.20,498.40"/>
    </edge>
    <edge id=":AB1_11" function="internal">
        <lane id=":AB1_11_0" index="0" speed="8.00" length="14.19" shape="492.80,498.40 496.65,498.95 499.40,500.60 501.05,503.35 501.60,507.20"/>
    </edge>
    <edge id=":AB10_0" function="internal">
        <lane id=":AB10_0_0" index="0" speed="22.22" length="14.40" shape="507.20,5004.80 492.80,5004.80"/>
        <lane id=":AB10_0_1" index="1" speed="22.22" length="14.40" shape="507.20,5001.60 492.80,5001.60"/>
    </edge>
    <edge id=":AB10_2" function="internal">
        <lane id=":AB10_2_0" index="0" speed="8.67" length="3.71" shape="507.20,5001.60 503.56,5000.89"/>
    </edge>
    <edge id=":AB10_8" function="internal">
        <lane id=":AB10_8_0" index="0" speed="8.67" length="13.14" shape="503.56,5000.89 503.35,5000.85 500.60,4998.60 498.95,4994.85 498.40,4989.60"/>
    </edge>
    <edge id=":AB10_3" function="internal">
        <lane id=":AB10_3_0" index="0" speed="6.51" length="9.03" shape="501.60,4989.60 501.95,4992.05 503.00,4993.80 504.75,4994.85 507.20,4995.20"/>
    </edge>
    <edge id=":AB10_4" function="internal">
        <lane id=":AB10_4_0" index="0" speed="8.67" length="16.85" shape="501.60,4989.60 501.05,4994.85 499.40,4998.60 496.65,5000.85 492.80,5001.60"/>
    </edge>
    <edge id=":AB10_5" function="internal">
        <lane id=":AB10_5_0" index="0" speed="6.51" length="9.03" shape="492.80,4995.20 495.25,4994.85 497.00,4993.80 498.05,4992.05 498.40,4989.60"/>
    </edge>
    <edge id=":AB10_6" function="internal">
        <lane id=":AB10_6_0" index="0" speed="22.22" length="14.40" shape="492.80,4995.20 507.20,4995.20"/>
        <lane id=":AB10_6_1" index="1" speed="22.22" length="14.40" shape="492.80,4998.40 507.20,4998.40"/>
    </edge>
    <edge id=":AB2_0" function="internal">
        <lane id=":AB2_0_0" index="0" speed="6.51" length="9.03" shape="498.40,1007.20 498.05,1004.75 497.00,1003.00 495.25,1001.95 492.80,1001.60"/>
    </edge>
    <edge id=":AB2_1" function="internal">
        <lane id=":AB2_1_0" index="0" speed="13.89" length="14.40" shape="498.40,1007.20 498.40,992.80"/>
    </edge>
    <edge id=":AB2_2" function="internal">
        <lane id=":AB2_2_0" index="0" speed="13.89" length="14.40" shape="501.60,992.80 501.60,1007.20"/>
    </edge>
    <edge id=":AB2_3" function="internal">
        <lane id=":AB2_3_0" index="0" speed="8.00" length="4.07" shape="501.60,992.80 501.05,996.65 500.96,996.80"/>
    </edge>
    <edge id=":AB2_6" function="internal">
        <lane id=":AB2_6_0" index="0" speed="8.00" length="10.13" shape="500.96,996.80 499.40,999.40 496.65,1001.05 492.80,1001.60"/>
    </edge>
    <edge id=":AB2_4" function="internal">
        <lane id=":AB2_4_0" index="0" speed="6.51" length="9.03" shape="492.80,998.40 495.25,998.05 497.00,997.00 498.05,995.25 498.40,992.80"/>
    </edge>
    <edge id=":AB2_5" function="internal">
        <lane id=":AB2_5_0" index="0" speed="8.00" length="14.19" shape="492.80,998.40 496.65,998.95 499.40,1000.60 501.05,1003.35 501.60,1007.20"/>
    </edge>
    <edge id=":AB3_0" function="internal">
        <lane id=":AB3_0_0" index="0" speed="6.51" length="9.03" shape="498.40,1507.20 498.05,1504.75 497.00,1503.00 495.25,1501.95 492.80,1501.60"/>
    </edge>
    <edge id=":AB3_1" function="internal">
        <lane id=":AB3_1_0" index="0" speed="13.89" length="14.40" shape="498.40,1507.20 498.40,1492.80"/>
    </edge>
    <edge id=":AB3_2" function="internal">
        <lane id=":AB3_2_0" index="0" speed="8.00" length="4.07" shape="498.40,1507.20 498.95,1503.35 499.04,1503.20"/>
    </edge>
    <edge id=":AB3_12" function="internal">
        <lane id=":AB3_12_0" index="0" speed="8.00" length="10.13" shape="499.04,1503.20 500.60,1500.60 503.35,1498.95 507.20,1498.40"/>
    </edge>
    <edge id=":AB3_3" function="internal">
        <lane id=":AB3_3_0" index="0" speed="6.51" length="9.03" shape="507.20,1501.60 504.75,1501.95 503.00,1503.00 501.95,1504.75 501.60,1507.20"/>
    </edge>
    <edge id=":AB3_4" function="internal">
        <lane id=":AB3_4_0" index="0" speed="13.89" length="14.40" shape="507.20,1501.60 492.80,1501.60"/>
    </edge>
    <edge id=":AB3_5" function="internal">
        <lane id=":AB3_5_0" index="0" speed="8.00" length="14.19" shape="507.20,1501.60 503.35,1501.05 500.60,1499.40 498.95,1496.65 498.40,1492.80"/>
    </edge>
    <edge id=":AB3_6" function="internal">
        <lane id=":AB3_6_0" index="0" speed="6.51" length="9.03" shape="501.60,1492.80 501.95,1495.25 503.00,1497.00 504.75,1498.05 507.20,1498.40"/>
    </edge>
    <edge id=":AB3_7" function="internal">
        <lane id=":AB3_7_0" index="0" speed="13.89" length="14.40" shape="501.60,1492.80 501.60,1507.20"/>
    </edge>
    <edge id=":AB3_8" function="internal">
        <lane id=":AB3_8_0" index="0" speed="8.00" length="4.07" shape="501.60,1492.80 501.05,1496.65 500.96,1496.80"/>
    </edge>
    <edge id=":AB3_13" function="internal">
        <lane id=":AB3_13_0" index="0" speed="8.00" length="10.13" shape="500.96,1496.80 499.40,1499.40 496.65,1501.05 492.80,1501.60"/>
    </edge>
    <edge id=":AB3_9" function="internal">
        <lane id=":AB3_9_0" index="0" speed="6.51" length="9.03" shape="492.80,1498.40 495.25,1498.05 497.00,1497.00 498.05,1495.25 498.40,1492.80"/>
    </edge>
    <edge id=":AB3_10" function="internal">
        <lane id=":AB3_10_0" index="0" speed="13.89" length="14.40" shape="492.80,1498.40 507.20,1498.40"/>
    </edge>
    <edge id=":AB3_11" function="internal">
        <lane id=":AB3_11_0" index="0" speed="8.00" length="14.19" shape="492.80,1498.40 496.65,1498.95 499.40,1500.60 501.05,1503.35 501.60,1507.20"/>
    </edge>
    <edge id=":AB4_0" function="internal">
        <lane id=":AB4_0_0" index="0" speed="6.51" length="9.03" shape="498.40,2007.20 498.05,2004.75 497.00,2003.00 495.25,2001.95 492.80,2001.60"/>
    </edge>
    <edge id=":AB4_1" function="internal">
        <lane id=":AB4_1_0" index="0" speed="13.89" length="14.40" shape="498.40,2007.20 498.40,1992.80"/>
    </edge>
    <edge id=":AB4_2" function="internal">
        <lane id=":AB4_2_0" index="0" speed="8.00" length="4.07" shape="498.40,2007.20 498.95,2003.35 499.04,2003.20"/>
    </edge>
    <edge id=":AB4_12" function="internal">
        <lane id=":AB4_12_0" index="0" speed="8.00" length="10.13" shape="499.04,2003.20 500.60,2000.60 503.35,1998.95 507.20,1998.40"/>
    </edge>
    <edge id=":AB4_3" function="internal">
        <lane id=":AB4_3_0" index="0" speed="6.51" length="9.03" shape="507.20,2001.60 504.75,2001.95 503.00,2003.00 501.95,2004.75 501.60,2007.20"/>
    </edge>
    <edge id=":AB4_4" function="internal">
        <lane id=":AB4_4_0" index="0" speed="13.89" length="14.40" shape="507.20,2001.60 492.80,2001.60"/>
    </edge>
    <edge id=":AB4_5" function="internal">
        <lane id=":AB4_5_0" index="0" speed="8.00" length="14.19" shape="507.20,2001.60 503.35,2001.05 500.60,1999.40 498.95,1996.65 498.40,1992.80"/>
    </edge>
    <edge id=":AB4_6" function="internal">
        <lane id=":AB4_6_0" index="0" speed="6.51" length="9.03" shape="501.60,1992.80 501.95,1995.25 503.00,1997.00 504.75,1998.05 507.20,1998.40"/>
    </edge>
    <edge id=":AB4_7" function="internal">
        <lane id=":AB4_7_0" index="0" speed="13.89" length="14.40" shape="501.60,1992.80 501.60,2007.20"/>
    </edge>
    <edge id=":AB4_8" function="internal">
        <lane id=":AB4_8_0" index="0" speed="8.00" length="4.07" shape="501.60,1992.80 501.05,1996.65 500.96,1996.80"/>
    </edge>
    <edge id=":AB4_13" function="internal">
        <lane id=":AB4_13_0" index="0" speed="8.00" length="10.13" shape="500.96,1996.80 499.40,1999.40 496.65,2001.05 492.80,2001.60"/>
    </edge>
    <edge id=":AB4_9" function="internal">
        <lane id=":AB4_9_0" index="0" speed="6.51" length="9.03" shape="492.80,1998.40 495.25,1998.05 497.00,1997.00 498.05,1995.25 498.40,1992.80"/>
    </edge>
    <edge id=":AB4_10" function="internal">
        <lane id=":AB4_10_0" index="0" speed="13.89" length="14.40" shape="492.80,1998.40 507.20,1998.40"/>
    </edge>
    <edge id=":AB4_11" function="internal">
        <lane id=":AB4_11_0" index="0" speed="8.00" length="14.19" shape="492.80,1998.40 496.65,1998.95 499.40,2000.60 501.05,2003.35 501.60,2007.20"/>
    </edge>
    <edge id=":AB5_0" function="internal">
        <lane id=":AB5_0_0" index="0" speed="6.51" length="9.03" shape="498.40,2510.40 498.05,2507.95 497.00,2506.20 495.25,2505.15 492.80,2504.80"/>
    </edge>
    <edge id=":AB5_1" function="internal">
        <lane id=":AB5_1_0" index="0" speed="13.89" length="20.80" shape="498.40,2510.40 498.40,2489.60"/>
    </edge>
    <edge id=":AB5_2" function="internal">
        <lane id=":AB5_2_0" index="0" speed="8.67" length="5.56" shape="498.40,2510.40 498.95,2505.15 499.06,2504.89"/>
    </edge>
    <edge id=":AB5_14" function="internal">
        <lane id=":AB5_14_0" index="0" speed="8.67" length="11.29" shape="499.06,2504.89 500.60,2501.40 503.35,2499.15 507.20,2498.40"/>
    </edge>
    <edge id=":AB5_3" function="internal">
        <lane id=":AB5_3_0" index="0" speed="6.51" length="9.03" shape="507.20,2504.80 504.75,2505.15 503.00,2506.20 501.95,2507.95 501.60,2510.40"/>
    </edge>
    <edge id=":AB5_4" function="internal">
        <lane id=":AB5_4_0" index="0" speed="22.22" length="14.40" shape="507.20,2504.80 492.80,2504.80"/>
        <lane id=":AB5_4_1" index="1" speed="22.22" length="14.40" shape="507.20,2501.60 492.80,2501.60"/>
    </edge>
    <edge id=":AB5_6" function="internal">
        <lane id=":AB5_6_0" index="0" speed="8.67" length="3.71" shape="507.20,2501.60 503.56,2500.89"/>
    </edge>
    <edge id=":AB5_15" function="internal">
        <lane id=":AB5_15_0" index="0" speed="8.67" length="13.14" shape="503.56,2500.89 503.35,2500.85 500.60,2498.60 498.95,2494.85 498.40,2489.60"/>
    </edge>
    <edge id=":AB5_7" function="internal">
        <lane id=":AB5_7_0" index="0" speed="6.51" length="9.03" shape="501.60,2489.60 501.95,2492.05 503.00,2493.80 504.75,2494.85 507.20,2495.20"/>
    </edge>
    <edge id=":AB5_8" function="internal">