<?xml version="1.0" encoding="UTF-8"?>

<!-- generated on 2025-05-09 10:29:48 by Eclipse SUMO sumo Version 1.22.0
-->

<additional>
    <vType id="passenger" accel="2.6" decel="4.5" sigma="0.5" length="4.5" minGap="2.5" maxSpeed="33.33" color="0,0,255"/>
    <vType id="bus" accel="1.0" decel="3.0" sigma="0.5" length="12.0" minGap="3.0" maxSpeed="22.22" color="255,255,0"/>
    <vType id="truck" accel="1.3" decel="3.5" sigma="0.5" length="8.0" minGap="3.0" maxSpeed="25.0" color="255,0,0"/>
</additional>

